! wB97X-D3BJ def2-TZVP SP Grid4 TightSCF 

%pal
    nprocs 4
end

*xyz -1 1
C  1.208995 -0.056447  2.319079
O  0.097037 -0.742342  2.374182
O  2.038902 -0.132529  1.435260
B -0.542349 -0.041626  5.719692
H -0.575633 -1.229482  6.069369
H  0.640706  0.363733  5.678614
H -1.192228  0.666470  6.518487
H  1.341532  0.636241  3.191420
O -1.202160  0.053744  4.329507
H -0.465006 -0.449687  3.231394
H -1.366461  0.987555  4.156071
*
