13
Energy:   -322.27034490
O   1.318953730   2.094010530  -0.505246270
H   1.479004500   2.669174090  -1.253445760
H   1.939446560   2.388967030   0.161252910
O   0.975938860  -1.327687930   1.366528140
H   1.801759480  -1.336164370   1.850449920
H   0.471189620  -2.049886970   1.740544980
O  -0.276476880  -1.482426260  -1.850597820
H  -1.078718010  -1.962316770  -2.056379530
H   0.428674400  -2.046096560  -2.168826220
O  -2.045014420   0.826228950   0.806980390
H  -2.536360020   1.644926960   0.739564460
H  -2.453659590   0.360470670   1.536576300
Na  -0.011521200   0.181232570  -0.302121220
