13
Energy:   -319.88094533
O  -1.807298330  -0.705786510   1.795065630
H  -2.223797150  -0.152602930   2.455935130
H  -2.191985870  -1.571840850   1.929962720
O  -1.407124820   0.263020980  -0.794866140
H  -1.728415160  -0.056635610   0.048237660
H  -2.199222470   0.434059010  -1.304335620
O   2.463114390   0.961927220  -2.446441530
H   2.847459540   1.828093290  -2.581596940
H   2.879946280   0.408676320  -3.107044640
O   0.925668980  -0.451081860   1.273062420
H   1.512731030  -0.702184200   1.986180640
H   0.046853170  -0.600073620   1.621940720
Na   0.887586480   0.346585090  -0.881579040
