13
Energy:   -316.40885279
O  -0.505535340  -0.500467780   2.295219580
H  -1.253143880  -0.281352420   2.851368640
H   0.049892020  -1.052043760   2.846124510
O  -1.301834810   1.746953810  -0.868952290
H  -0.816866210   2.550719730  -1.056028900
H  -2.222128460   2.007143440  -0.908862220
O   1.723733120   0.694833050   0.193758950
H   1.850143090   1.051300670   1.073067320
H   2.590968640   0.736843250  -0.209192110
O  -0.015881190  -1.922503290  -1.777822530
H   0.731940510  -2.116305530  -2.343008550
H  -0.510002260  -2.741620050  -1.744297350
Na  -0.301114010  -0.207301200  -0.299158490
