! wB97X-D3BJ def2-TZVP SP Grid4 TightSCF 

%pal
    nprocs 4
end

*xyz -1 1
C  0.836952 -0.019153  2.077471
O  0.816481 -1.184205  2.021337
O  0.972223  1.135893  2.019608
B  0.280544  0.058858  5.719612
H -0.405188 -0.985318  5.726270
H  0.785256  0.244548  6.839614
H -0.458235  1.042131  5.456374
H  1.173188 -0.032420  4.855721
O -1.509055  0.062905  3.235314
H -1.388147 -0.847564  3.541513
H -1.104019  0.524324  4.007167
*
